
     RDKit          3D

 61 65  0  0  0  0  0  0  0  0999 V2000
    8.3474    1.3223    1.2324 C   0  0  0  0  0  0  0  0  0  0  0  0
    7.6020    0.1193    1.3218 O   0  0  0  0  0  0  0  0  0  0  0  0
    6.3509   -0.0819    0.7257 C   0  0  0  0  0  0  0  0  0  0  0  0
    5.6983   -1.2994    0.9560 C   0  0  0  0  0  0  0  0  0  0  0  0
    6.3411   -2.2607    1.7500 O   0  0  0  0  0  0  0  0  0  0  0  0
    5.7666   -3.5059    2.1321 C   0  0  0  0  0  0  0  0  0  0  0  0
    4.4223   -1.5154    0.4125 C   0  0  0  0  0  0  0  0  0  0  0  0
    3.7751   -0.5052   -0.3135 C   0  0  0  0  0  0  0  0  0  0  0  0
    2.3696   -0.7237   -0.8129 C   0  0  0  0  0  0  0  0  0  0  0  0
    1.6673    0.5663   -0.9542 N   0  0  0  0  0  0  0  0  0  0  0  0
    0.2647    0.3615   -1.3810 C   0  0  0  0  0  0  0  0  0  0  0  0
   -0.6300    1.4250   -0.7227 C   0  0  0  0  0  0  0  0  0  0  0  0
   -2.1282    1.0915   -0.8236 C   0  0  0  0  0  0  0  0  0  0  0  0
   -2.5392   -0.0464    0.1215 C   0  0  0  0  0  0  0  0  0  0  0  0
   -3.9976   -0.0903    0.2630 N   0  0  0  0  0  0  0  0  0  0  0  0
   -4.8815   -0.8176   -0.4657 C   0  0  0  0  0  0  0  0  0  0  0  0
   -4.6177   -1.6730   -1.5410 C   0  0  0  0  0  0  0  0  0  0  0  0
   -5.7057   -2.3494   -2.1287 C   0  0  0  0  0  0  0  0  0  0  0  0
   -7.0200   -2.1646   -1.6426 C   0  0  0  0  0  0  0  0  0  0  0  0
   -7.2653   -1.2916   -0.5695 C   0  0  0  0  0  0  0  0  0  0  0  0
   -6.1724   -0.6329   -0.0067 C   0  0  0  0  0  0  0  0  0  0  0  0
   -6.0898    0.2571    1.0386 C   0  0  0  0  0  0  0  0  0  0  0  0
   -4.7531    0.5769    1.1709 C   0  0  0  0  0  0  0  0  0  0  0  0
   -4.3234    1.4803    2.1480 C   0  0  0  0  0  0  0  0  0  0  0  0
   -5.2899    2.0400    3.0016 C   0  0  0  0  0  0  0  0  0  0  0  0
   -6.6530    1.6943    2.8697 C   0  0  0  0  0  0  0  0  0  0  0  0
   -7.0676    0.7911    1.8749 C   0  0  0  0  0  0  0  0  0  0  0  0
    2.3945    1.4261   -1.9083 C   0  0  0  0  0  0  0  0  0  0  0  0
    3.7684    1.8240   -1.3364 C   0  0  0  0  0  0  0  0  0  0  0  0
    4.4477    0.7017   -0.5837 C   0  0  0  0  0  0  0  0  0  0  0  0
    5.7318    0.9046   -0.0644 C   0  0  0  0  0  0  0  0  0  0  0  0
    8.6297    1.5165    0.1807 H   0  0  0  0  0  0  0  0  0  0  0  0
    7.7511    2.1701    1.6278 H   0  0  0  0  0  0  0  0  0  0  0  0
    9.2705    1.2230    1.8402 H   0  0  0  0  0  0  0  0  0  0  0  0
    6.4690   -4.0352    2.8062 H   0  0  0  0  0  0  0  0  0  0  0  0
    5.5876   -4.1353    1.2350 H   0  0  0  0  0  0  0  0  0  0  0  0
    4.8133   -3.3369    2.6767 H   0  0  0  0  0  0  0  0  0  0  0  0
    3.9076   -2.4498    0.5832 H   0  0  0  0  0  0  0  0  0  0  0  0
    2.3973   -1.2692   -1.7863 H   0  0  0  0  0  0  0  0  0  0  0  0
    1.8268   -1.3576   -0.0704 H   0  0  0  0  0  0  0  0  0  0  0  0
   -0.0947   -0.6477   -1.0791 H   0  0  0  0  0  0  0  0  0  0  0  0
    0.1563    0.4101   -2.4928 H   0  0  0  0  0  0  0  0  0  0  0  0
   -0.4530    2.4005   -1.2248 H   0  0  0  0  0  0  0  0  0  0  0  0
   -0.3501    1.5502    0.3475 H   0  0  0  0  0  0  0  0  0  0  0  0
   -2.7031    2.0040   -0.5501 H   0  0  0  0  0  0  0  0  0  0  0  0
   -2.3904    0.8272   -1.8708 H   0  0  0  0  0  0  0  0  0  0  0  0
   -2.1695   -1.0219   -0.2597 H   0  0  0  0  0  0  0  0  0  0  0  0
   -2.0741    0.0925    1.1225 H   0  0  0  0  0  0  0  0  0  0  0  0
   -3.6147   -1.8156   -1.9255 H   0  0  0  0  0  0  0  0  0  0  0  0
   -5.5344   -3.0163   -2.9614 H   0  0  0  0  0  0  0  0  0  0  0  0
   -7.8457   -2.6942   -2.1016 H   0  0  0  0  0  0  0  0  0  0  0  0
   -8.2675   -1.1422   -0.1922 H   0  0  0  0  0  0  0  0  0  0  0  0
   -3.2813    1.7544    2.2468 H   0  0  0  0  0  0  0  0  0  0  0  0
   -4.9883    2.7402    3.7679 H   0  0  0  0  0  0  0  0  0  0  0  0
   -7.3810    2.1308    3.5422 H   0  0  0  0  0  0  0  0  0  0  0  0
   -8.1078    0.5183    1.7684 H   0  0  0  0  0  0  0  0  0  0  0  0
    2.5259    0.9037   -2.8888 H   0  0  0  0  0  0  0  0  0  0  0  0
    1.8187    2.3632   -2.1006 H   0  0  0  0  0  0  0  0  0  0  0  0
    4.4221    2.1487   -2.1801 H   0  0  0  0  0  0  0  0  0  0  0  0
    3.6387    2.6974   -0.6454 H   0  0  0  0  0  0  0  0  0  0  0  0
    6.2280    1.8477   -0.2492 H   0  0  0  0  0  0  0  0  0  0  0  0
  1  2  1  0
  2  3  1  0
  3  4  2  0
  4  5  1  0
  5  6  1  0
  4  7  1  0
  7  8  2  0
  8  9  1  0
  9 10  1  0
 10 11  1  0
 11 12  1  0
 12 13  1  0
 13 14  1  0
 14 15  1  0
 15 16  1  0
 16 17  2  0
 17 18  1  0
 18 19  2  0
 19 20  1  0
 20 21  2  0
 21 22  1  0
 22 23  2  0
 23 24  1  0
 24 25  2  0
 25 26  1  0
 26 27  2  0
 10 28  1  0
 28 29  1  0
 29 30  1  0
 30 31  2  0
 31  3  1  0
 30  8  1  0
 23 15  1  0
 21 16  1  0
 27 22  1  0
  1 32  1  0
  1 33  1  0
  1 34  1  0
  6 35  1  0
  6 36  1  0
  6 37  1  0
  7 38  1  0
  9 39  1  0
  9 40  1  0
 11 41  1  0
 11 42  1  0
 12 43  1  0
 12 44  1  0
 13 45  1  0
 13 46  1  0
 14 47  1  0
 14 48  1  0
 17 49  1  0
 18 50  1  0
 19 51  1  0
 20 52  1  0
 24 53  1  0
 25 54  1  0
 26 55  1  0
 27 56  1  0
 28 57  1  0
 28 58  1  0
 29 59  1  0
 29 60  1  0
 31 61  1  0
M  END
$$$$

     RDKit          3D

 65 68  0  0  0  0  0  0  0  0999 V2000
   -9.9490    2.3932    0.3021 C   0  0  0  0  0  0  0  0  0  0  0  0
   -9.4172    1.0779    0.4259 O   0  0  0  0  0  0  0  0  0  0  0  0
   -8.0668    0.7446    0.2389 C   0  0  0  0  0  0  0  0  0  0  0  0
   -7.0947    1.7152   -0.0628 C   0  0  0  0  0  0  0  0  0  0  0  0
   -5.7545    1.3500   -0.2497 C   0  0  0  0  0  0  0  0  0  0  0  0
   -5.3709    0.0058   -0.0990 C   0  0  0  0  0  0  0  0  0  0  0  0
   -3.9424   -0.4163   -0.3435 C   0  0  0  0  0  0  0  0  0  0  0  0
   -3.0009    0.7078   -0.1451 N   0  0  0  0  0  0  0  0  0  0  0  0
   -1.6132    0.2912   -0.4528 C   0  0  0  0  0  0  0  0  0  0  0  0
   -1.0080   -0.4926    0.7241 C   0  0  0  0  0  0  0  0  0  0  0  0
    0.5144   -0.6627    0.6036 C   0  0  0  0  0  0  0  0  0  0  0  0
    0.9170   -1.5722   -0.5650 C   0  0  0  0  0  0  0  0  0  0  0  0
    2.3362   -1.9113   -0.4824 N   0  0  0  0  0  0  0  0  0  0  0  0
    3.3788   -0.9563   -0.7365 C   0  0  0  0  0  0  0  0  0  0  0  0
    3.0916    0.2053   -1.1391 O   0  0  0  0  0  0  0  0  0  0  0  0
    4.7888   -1.3195   -0.5214 C   0  0  0  0  0  0  0  0  0  0  0  0
    5.8822   -0.4882   -0.6356 C   0  0  0  0  0  0  0  0  0  0  0  0
    6.9569   -1.2382   -0.3266 N   0  0  0  0  0  0  0  0  0  0  0  0
    6.5411   -2.4655   -0.0513 N   0  0  0  0  0  0  0  0  0  0  0  0
    5.2217   -2.5427   -0.1553 N   0  0  0  0  0  0  0  0  0  0  0  0
    8.3377   -0.8337   -0.3226 C   0  0  0  0  0  0  0  0  0  0  0  0
    9.3184   -1.7357   -0.7688 C   0  0  0  0  0  0  0  0  0  0  0  0
   10.6646   -1.3647   -0.7986 C   0  0  0  0  0  0  0  0  0  0  0  0
   11.0475   -0.0921   -0.3766 C   0  0  0  0  0  0  0  0  0  0  0  0
   10.0882    0.8103    0.0893 C   0  0  0  0  0  0  0  0  0  0  0  0
    8.7259    0.4481    0.1306 C   0  0  0  0  0  0  0  0  0  0  0  0
    7.7490    1.3199    0.6339 O   0  0  0  0  0  0  0  0  0  0  0  0
    8.0015    2.6485    1.0830 C   0  0  0  0  0  0  0  0  0  0  0  0
   -3.3992    1.8417   -1.0021 C   0  0  0  0  0  0  0  0  0  0  0  0
   -4.7302    2.4216   -0.5192 C   0  0  0  0  0  0  0  0  0  0  0  0
   -6.3423   -0.9649    0.1818 C   0  0  0  0  0  0  0  0  0  0  0  0
   -7.6908   -0.6014    0.3575 C   0  0  0  0  0  0  0  0  0  0  0  0
   -8.6864   -1.5483    0.6466 O   0  0  0  0  0  0  0  0  0  0  0  0
   -8.4588   -2.9489    0.7692 C   0  0  0  0  0  0  0  0  0  0  0  0
   -9.7805    2.7770   -0.7261 H   0  0  0  0  0  0  0  0  0  0  0  0
  -11.0421    2.3596    0.4876 H   0  0  0  0  0  0  0  0  0  0  0  0
   -9.4817    3.0681    1.0504 H   0  0  0  0  0  0  0  0  0  0  0  0
   -7.3700    2.7586   -0.1535 H   0  0  0  0  0  0  0  0  0  0  0  0
   -3.6965   -1.2363    0.3659 H   0  0  0  0  0  0  0  0  0  0  0  0
   -3.8685   -0.8168   -1.3810 H   0  0  0  0  0  0  0  0  0  0  0  0
   -1.5762   -0.3175   -1.3853 H   0  0  0  0  0  0  0  0  0  0  0  0
   -0.9704    1.1852   -0.6209 H   0  0  0  0  0  0  0  0  0  0  0  0
   -1.2218    0.0584    1.6674 H   0  0  0  0  0  0  0  0  0  0  0  0
   -1.4792   -1.4951    0.8067 H   0  0  0  0  0  0  0  0  0  0  0  0
    0.8876   -1.1087    1.5497 H   0  0  0  0  0  0  0  0  0  0  0  0
    0.9946    0.3324    0.4923 H   0  0  0  0  0  0  0  0  0  0  0  0
    0.3204   -2.5103   -0.5254 H   0  0  0  0  0  0  0  0  0  0  0  0
    0.7115   -1.0769   -1.5381 H   0  0  0  0  0  0  0  0  0  0  0  0
    2.5910   -2.9017   -0.2578 H   0  0  0  0  0  0  0  0  0  0  0  0
    5.8925    0.5542   -0.9340 H   0  0  0  0  0  0  0  0  0  0  0  0
    9.0364   -2.7229   -1.1126 H   0  0  0  0  0  0  0  0  0  0  0  0
   11.4113   -2.0647   -1.1549 H   0  0  0  0  0  0  0  0  0  0  0  0
   12.0904    0.1962   -0.4032 H   0  0  0  0  0  0  0  0  0  0  0  0
   10.4186    1.7843    0.4186 H   0  0  0  0  0  0  0  0  0  0  0  0
    8.4115    3.2629    0.2516 H   0  0  0  0  0  0  0  0  0  0  0  0
    7.0461    3.0998    1.4230 H   0  0  0  0  0  0  0  0  0  0  0  0
    8.7119    2.6364    1.9381 H   0  0  0  0  0  0  0  0  0  0  0  0
   -2.6444    2.6593   -0.9446 H   0  0  0  0  0  0  0  0  0  0  0  0
   -3.4796    1.5268   -2.0688 H   0  0  0  0  0  0  0  0  0  0  0  0
   -5.1169    3.1302   -1.2861 H   0  0  0  0  0  0  0  0  0  0  0  0
   -4.5629    2.9967    0.4206 H   0  0  0  0  0  0  0  0  0  0  0  0
   -6.0391   -2.0006    0.2601 H   0  0  0  0  0  0  0  0  0  0  0  0
   -8.0641   -3.3582   -0.1854 H   0  0  0  0  0  0  0  0  0  0  0  0
   -9.4193   -3.4543    0.9991 H   0  0  0  0  0  0  0  0  0  0  0  0
   -7.7472   -3.1479    1.5992 H   0  0  0  0  0  0  0  0  0  0  0  0
  1  2  1  0
  2  3  1  0
  3  4  2  0
  4  5  1  0
  5  6  2  0
  6  7  1  0
  7  8  1  0
  8  9  1  0
  9 10  1  0
 10 11  1  0
 11 12  1  0
 12 13  1  0
 13 14  1  0
 14 15  2  0
 14 16  1  0
 16 17  2  0
 17 18  1  0
 18 19  1  0
 19 20  2  0
 18 21  1  0
 21 22  2  0
 22 23  1  0
 23 24  2  0
 24 25  1  0
 25 26  2  0
 26 27  1  0
 27 28  1  0
  8 29  1  0
 29 30  1  0
  6 31  1  0
 31 32  2  0
 32 33  1  0
 33 34  1  0
 32  3  1  0
 30  5  1  0
 20 16  1  0
 26 21  1  0
  1 35  1  0
  1 36  1  0
  1 37  1  0
  4 38  1  0
  7 39  1  0
  7 40  1  0
  9 41  1  0
  9 42  1  0
 10 43  1  0
 10 44  1  0
 11 45  1  0
 11 46  1  0
 12 47  1  0
 12 48  1  0
 13 49  1  0
 17 50  1  0
 22 51  1  0
 23 52  1  0
 24 53  1  0
 25 54  1  0
 28 55  1  0
 28 56  1  0
 28 57  1  0
 29 58  1  0
 29 59  1  0
 30 60  1  0
 30 61  1  0
 31 62  1  0
 34 63  1  0
 34 64  1  0
 34 65  1  0
M  END
$$$$

     RDKit          3D

 53 55  0  0  0  0  0  0  0  0999 V2000
   -5.1008   -0.7762    2.3235 C   0  0  0  0  0  0  0  0  0  0  0  0
   -4.7102   -0.0706    1.0093 C   0  0  0  0  0  0  0  0  0  0  0  0
   -5.2481    1.3776    1.0526 C   0  0  0  0  0  0  0  0  0  0  0  0
   -5.3262   -0.8489   -0.1858 C   0  0  0  0  0  0  0  0  0  0  0  0
   -4.7843   -0.3769   -1.5438 C   0  0  0  0  0  0  0  0  0  0  0  0
   -3.2539   -0.3570   -1.5409 C   0  0  0  0  0  0  0  0  0  0  0  0
   -2.7707    0.4909   -0.4357 N   0  0  0  0  0  0  0  0  0  0  0  0
   -1.3279    0.8071   -0.5278 C   0  0  0  0  0  0  0  0  0  0  0  0
   -0.3980   -0.4177   -0.4034 C   0  0  0  0  0  0  0  0  0  0  0  0
    1.0719    0.0041   -0.5153 C   0  0  0  0  0  0  0  0  0  0  0  0
    2.0055   -1.2060   -0.3903 C   0  0  0  0  0  0  0  0  0  0  0  0
    3.4549   -0.7794   -0.4888 C   0  0  0  0  0  0  0  0  0  0  0  0
    4.1232   -1.0000   -1.6361 C   0  0  0  0  0  0  0  0  0  0  0  0
    5.5757   -0.6386   -1.7772 C   0  0  0  0  0  0  0  0  0  0  0  0
    5.8837    0.6822   -1.0666 C   0  0  0  0  0  0  0  0  0  0  0  0
    5.3346    0.6671    0.3375 C   0  0  0  0  0  0  0  0  0  0  0  0
    5.9688    1.4070    1.3468 C   0  0  0  0  0  0  0  0  0  0  0  0
    5.4313    1.4450    2.6340 C   0  0  0  0  0  0  0  0  0  0  0  0
    4.2508    0.7585    2.9191 C   0  0  0  0  0  0  0  0  0  0  0  0
    3.5994    0.0319    1.9189 C   0  0  0  0  0  0  0  0  0  0  0  0
    4.1293   -0.0219    0.6138 C   0  0  0  0  0  0  0  0  0  0  0  0
   -3.1669   -0.0616    0.8749 C   0  0  0  0  0  0  0  0  0  0  0  0
   -4.6685   -0.2439    3.1984 H   0  0  0  0  0  0  0  0  0  0  0  0
   -4.7266   -1.8227    2.3369 H   0  0  0  0  0  0  0  0  0  0  0  0
   -6.2060   -0.8012    2.4397 H   0  0  0  0  0  0  0  0  0  0  0  0
   -4.8484    1.9151    1.9396 H   0  0  0  0  0  0  0  0  0  0  0  0
   -6.3576    1.3807    1.1159 H   0  0  0  0  0  0  0  0  0  0  0  0
   -4.9497    1.9504    0.1503 H   0  0  0  0  0  0  0  0  0  0  0  0
   -6.4340   -0.7503   -0.1809 H   0  0  0  0  0  0  0  0  0  0  0  0
   -5.0942   -1.9328   -0.0832 H   0  0  0  0  0  0  0  0  0  0  0  0
   -5.1716    0.6374   -1.7788 H   0  0  0  0  0  0  0  0  0  0  0  0
   -5.1414   -1.0649   -2.3403 H   0  0  0  0  0  0  0  0  0  0  0  0
   -2.8782   -1.3994   -1.4406 H   0  0  0  0  0  0  0  0  0  0  0  0
   -2.9073    0.0487   -2.5167 H   0  0  0  0  0  0  0  0  0  0  0  0
   -1.0696    1.5429    0.2654 H   0  0  0  0  0  0  0  0  0  0  0  0
   -1.1318    1.3169   -1.4968 H   0  0  0  0  0  0  0  0  0  0  0  0
   -0.5482   -0.9110    0.5798 H   0  0  0  0  0  0  0  0  0  0  0  0
   -0.6189   -1.1472   -1.2104 H   0  0  0  0  0  0  0  0  0  0  0  0
    1.3030    0.7386    0.2868 H   0  0  0  0  0  0  0  0  0  0  0  0
    1.2418    0.4948   -1.4993 H   0  0  0  0  0  0  0  0  0  0  0  0
    1.8285   -1.7369    0.5675 H   0  0  0  0  0  0  0  0  0  0  0  0
    1.7577   -1.9377   -1.1915 H   0  0  0  0  0  0  0  0  0  0  0  0
    3.6338   -1.4796   -2.4756 H   0  0  0  0  0  0  0  0  0  0  0  0
    5.8396   -0.5577   -2.8532 H   0  0  0  0  0  0  0  0  0  0  0  0
    6.1897   -1.4490   -1.3278 H   0  0  0  0  0  0  0  0  0  0  0  0
    6.9848    0.8364   -1.0556 H   0  0  0  0  0  0  0  0  0  0  0  0
    5.4184    1.5231   -1.6252 H   0  0  0  0  0  0  0  0  0  0  0  0
    6.8776    1.9569    1.1354 H   0  0  0  0  0  0  0  0  0  0  0  0
    5.9272    2.0129    3.4105 H   0  0  0  0  0  0  0  0  0  0  0  0
    3.8357    0.7930    3.9182 H   0  0  0  0  0  0  0  0  0  0  0  0
    2.6856   -0.4811    2.1795 H   0  0  0  0  0  0  0  0  0  0  0  0
   -2.7832   -1.1005    0.9884 H   0  0  0  0  0  0  0  0  0  0  0  0
   -2.7301    0.5514    1.6953 H   0  0  0  0  0  0  0  0  0  0  0  0
  1  2  1  0
  2  3  1  0
  2  4  1  0
  4  5  1  0
  5  6  1  0
  6  7  1  0
  7  8  1  0
  8  9  1  0
  9 10  1  0
 10 11  1  0
 11 12  1  0
 12 13  2  0
 13 14  1  0
 14 15  1  0
 15 16  1  0
 16 17  2  0
 17 18  1  0
 18 19  2  0
 19 20  1  0
 20 21  2  0
  7 22  1  0
 22  2  1  0
 21 12  1  0
 21 16  1  0
  1 23  1  0
  1 24  1  0
  1 25  1  0
  3 26  1  0
  3 27  1  0
  3 28  1  0
  4 29  1  0
  4 30  1  0
  5 31  1  0
  5 32  1  0
  6 33  1  0
  6 34  1  0
  8 35  1  0
  8 36  1  0
  9 37  1  0
  9 38  1  0
 10 39  1  0
 10 40  1  0
 11 41  1  0
 11 42  1  0
 13 43  1  0
 14 44  1  0
 14 45  1  0
 15 46  1  0
 15 47  1  0
 17 48  1  0
 18 49  1  0
 19 50  1  0
 20 51  1  0
 22 52  1  0
 22 53  1  0
M  END
$$$$

     RDKit          3D

 66 68  0  0  0  0  0  0  0  0999 V2000
    7.8518   -2.7162   -0.8614 C   0  0  0  0  0  0  0  0  0  0  0  0
    7.1458   -1.7842   -1.6736 O   0  0  0  0  0  0  0  0  0  0  0  0
    6.0983   -0.9662   -1.2192 C   0  0  0  0  0  0  0  0  0  0  0  0
    5.4835   -0.1023   -2.1366 C   0  0  0  0  0  0  0  0  0  0  0  0
    5.9541   -0.0917   -3.4601 O   0  0  0  0  0  0  0  0  0  0  0  0
    5.4391    0.7411   -4.4942 C   0  0  0  0  0  0  0  0  0  0  0  0
    4.4271    0.7260   -1.7125 C   0  0  0  0  0  0  0  0  0  0  0  0
    3.9828    0.6958   -0.3836 C   0  0  0  0  0  0  0  0  0  0  0  0
    2.9011    1.6521    0.0610 C   0  0  0  0  0  0  0  0  0  0  0  0
    2.2042    1.1928    1.2789 N   0  0  0  0  0  0  0  0  0  0  0  0
    1.2609    0.0842    0.9964 C   0  0  0  0  0  0  0  0  0  0  0  0
    0.2333   -0.1079    2.1263 C   0  0  0  0  0  0  0  0  0  0  0  0
   -0.4766    1.1912    2.5525 C   0  0  0  0  0  0  0  0  0  0  0  0
   -1.3004    1.8434    1.4310 C   0  0  0  0  0  0  0  0  0  0  0  0
   -2.2828    0.9117    0.8794 N   0  0  0  0  0  0  0  0  0  0  0  0
   -3.4796    0.5441    1.5834 C   0  0  0  0  0  0  0  0  0  0  0  0
   -3.6905    0.9925    2.7435 O   0  0  0  0  0  0  0  0  0  0  0  0
   -4.4574   -0.3869    0.9788 C   0  0  0  0  0  0  0  0  0  0  0  0
   -5.0477   -1.3680    1.7915 C   0  0  0  0  0  0  0  0  0  0  0  0
   -5.9137   -2.3162    1.2446 C   0  0  0  0  0  0  0  0  0  0  0  0
   -6.7767   -3.7911    2.4829 I   0  0  0  0  0  0  0  0  0  0  0  0
   -6.1989   -2.2988   -0.1210 C   0  0  0  0  0  0  0  0  0  0  0  0
   -5.6392   -1.3096   -0.9507 C   0  0  0  0  0  0  0  0  0  0  0  0
   -5.9142   -1.2470   -2.3258 O   0  0  0  0  0  0  0  0  0  0  0  0
   -6.7802   -2.1413   -3.0167 C   0  0  0  0  0  0  0  0  0  0  0  0
   -4.7911   -0.3371   -0.3958 C   0  0  0  0  0  0  0  0  0  0  0  0
   -4.3069    0.6777   -1.2307 O   0  0  0  0  0  0  0  0  0  0  0  0
   -4.6941    2.0446   -1.0908 C   0  0  0  0  0  0  0  0  0  0  0  0
   -6.0976    2.2657   -1.6446 C   0  0  0  0  0  0  0  0  0  0  0  0
   -7.0294    1.6002   -0.8697 F   0  0  0  0  0  0  0  0  0  0  0  0
    3.1791    0.8968    2.3514 C   0  0  0  0  0  0  0  0  0  0  0  0
    4.1550   -0.2310    1.9770 C   0  0  0  0  0  0  0  0  0  0  0  0
    4.6194   -0.1499    0.5449 C   0  0  0  0  0  0  0  0  0  0  0  0
    5.6585   -0.9885    0.1180 C   0  0  0  0  0  0  0  0  0  0  0  0
    7.1534   -3.4869   -0.4712 H   0  0  0  0  0  0  0  0  0  0  0  0
    8.3506   -2.1895   -0.0198 H   0  0  0  0  0  0  0  0  0  0  0  0
    8.6276   -3.2164   -1.4765 H   0  0  0  0  0  0  0  0  0  0  0  0
    5.5518    1.8104   -4.2149 H   0  0  0  0  0  0  0  0  0  0  0  0
    4.3698    0.5031   -4.6787 H   0  0  0  0  0  0  0  0  0  0  0  0
    6.0112    0.5564   -5.4271 H   0  0  0  0  0  0  0  0  0  0  0  0
    3.9493    1.4025   -2.4083 H   0  0  0  0  0  0  0  0  0  0  0  0
    3.3704    2.6390    0.2639 H   0  0  0  0  0  0  0  0  0  0  0  0
    2.1694    1.8215   -0.7600 H   0  0  0  0  0  0  0  0  0  0  0  0
    1.7972   -0.8715    0.8197 H   0  0  0  0  0  0  0  0  0  0  0  0
    0.6938    0.2905    0.0623 H   0  0  0  0  0  0  0  0  0  0  0  0
   -0.5237   -0.8540    1.8002 H   0  0  0  0  0  0  0  0  0  0  0  0
    0.7352   -0.5486    3.0137 H   0  0  0  0  0  0  0  0  0  0  0  0
   -1.1450    0.9595    3.4084 H   0  0  0  0  0  0  0  0  0  0  0  0
    0.2713    1.9239    2.9238 H   0  0  0  0  0  0  0  0  0  0  0  0
   -0.6226    2.1896    0.6216 H   0  0  0  0  0  0  0  0  0  0  0  0
   -1.8199    2.7433    1.8254 H   0  0  0  0  0  0  0  0  0  0  0  0
   -2.0809    0.4858   -0.0529 H   0  0  0  0  0  0  0  0  0  0  0  0
   -4.8139   -1.4149    2.8481 H   0  0  0  0  0  0  0  0  0  0  0  0
   -6.8625   -3.0519   -0.5233 H   0  0  0  0  0  0  0  0  0  0  0  0
   -6.8133   -1.8571   -4.0887 H   0  0  0  0  0  0  0  0  0  0  0  0
   -6.3991   -3.1817   -2.9353 H   0  0  0  0  0  0  0  0  0  0  0  0
   -7.8076   -2.0745   -2.5998 H   0  0  0  0  0  0  0  0  0  0  0  0
   -4.6533    2.3660   -0.0291 H   0  0  0  0  0  0  0  0  0  0  0  0
   -3.9811    2.6724   -1.6645 H   0  0  0  0  0  0  0  0  0  0  0  0
   -6.1561    1.8938   -2.6889 H   0  0  0  0  0  0  0  0  0  0  0  0
   -6.3341    3.3501   -1.6350 H   0  0  0  0  0  0  0  0  0  0  0  0
    3.7644    1.8175    2.5711 H   0  0  0  0  0  0  0  0  0  0  0  0
    2.6568    0.6428    3.2969 H   0  0  0  0  0  0  0  0  0  0  0  0
    5.0352   -0.1789    2.6545 H   0  0  0  0  0  0  0  0  0  0  0  0
    3.6681   -1.2156    2.1429 H   0  0  0  0  0  0  0  0  0  0  0  0
    6.1209   -1.6529    0.8361 H   0  0  0  0  0  0  0  0  0  0  0  0
  1  2  1  0
  2  3  1  0
  3  4  2  0
  4  5  1  0
  5  6  1  0
  4  7  1  0
  7  8  2  0
  8  9  1  0
  9 10  1  0
 10 11  1  0
 11 12  1  0
 12 13  1  0
 13 14  1  0
 14 15  1  0
 15 16  1  0
 16 17  2  0
 16 18  1  0
 18 19  2  0
 19 20  1  0
 20 21  1  0
 20 22  2  0
 22 23  1  0
 23 24  1  0
 24 25  1  0
 23 26  2  0
 26 27  1  0
 27 28  1  0
 28 29  1  0
 29 30  1  0
 10 31  1  0
 31 32  1  0
 32 33  1  0
 33 34  2  0
 34  3  1  0
 33  8  1  0
 26 18  1  0
  1 35  1  0
  1 36  1  0
  1 37  1  0
  6 38  1  0
  6 39  1  0
  6 40  1  0
  7 41  1  0
  9 42  1  0
  9 43  1  0
 11 44  1  0
 11 45  1  0
 12 46  1  0
 12 47  1  0
 13 48  1  0
 13 49  1  0
 14 50  1  0
 14 51  1  0
 15 52  1  0
 19 53  1  0
 22 54  1  0
 25 55  1  0
 25 56  1  0
 25 57  1  0
 28 58  1  0
 28 59  1  0
 29 60  1  0
 29 61  1  0
 31 62  1  0
 31 63  1  0
 32 64  1  0
 32 65  1  0
 34 66  1  0
M  END
$$$$

     RDKit          3D

 65 68  0  0  0  0  0  0  0  0999 V2000
   11.9303   -2.4956   -2.5283 C   0  0  0  0  0  0  0  0  0  0  0  0
   10.5892   -2.1818   -2.8823 O   0  0  0  0  0  0  0  0  0  0  0  0
    9.4832   -2.3747   -2.0419 C   0  0  0  0  0  0  0  0  0  0  0  0
    8.2152   -2.0294   -2.5209 C   0  0  0  0  0  0  0  0  0  0  0  0
    7.0820   -2.1984   -1.7216 C   0  0  0  0  0  0  0  0  0  0  0  0
    7.1986   -2.7233   -0.4208 C   0  0  0  0  0  0  0  0  0  0  0  0
    8.4724   -3.0726    0.0575 C   0  0  0  0  0  0  0  0  0  0  0  0
    9.6061   -2.8971   -0.7409 C   0  0  0  0  0  0  0  0  0  0  0  0
    6.0370   -2.9310    0.4062 N   0  0  0  0  0  0  0  0  0  0  0  0
    4.8088   -2.3971    0.2598 C   0  0  0  0  0  0  0  0  0  0  0  0
    4.0393   -2.9091    1.2859 C   0  0  0  0  0  0  0  0  0  0  0  0
    4.8117   -3.7309    2.0212 N   0  0  0  0  0  0  0  0  0  0  0  0
    6.0146   -3.7258    1.4667 N   0  0  0  0  0  0  0  0  0  0  0  0
    2.6223   -2.6321    1.5799 C   0  0  0  0  0  0  0  0  0  0  0  0
    2.0591   -3.2733    2.5071 O   0  0  0  0  0  0  0  0  0  0  0  0
    1.8825   -1.6447    0.8434 N   0  0  0  0  0  0  0  0  0  0  0  0
    0.4783   -1.3724    1.1506 C   0  0  0  0  0  0  0  0  0  0  0  0
   -0.0715   -0.2398    0.2730 C   0  0  0  0  0  0  0  0  0  0  0  0
   -1.4931    0.1814    0.6782 C   0  0  0  0  0  0  0  0  0  0  0  0
   -2.5499   -0.8764    0.3042 C   0  0  0  0  0  0  0  0  0  0  0  0
   -3.9377   -0.4111    0.5103 N   0  0  0  0  0  0  0  0  0  0  0  0
   -4.2975   -0.1155    1.9158 C   0  0  0  0  0  0  0  0  0  0  0  0
   -4.3360    1.3849    2.2069 C   0  0  0  0  0  0  0  0  0  0  0  0
   -5.2830    2.0488    1.2595 C   0  0  0  0  0  0  0  0  0  0  0  0
   -6.0696    3.1300    1.6777 C   0  0  0  0  0  0  0  0  0  0  0  0
   -6.9505    3.7613    0.7796 C   0  0  0  0  0  0  0  0  0  0  0  0
   -7.7662    4.8361    1.1671 O   0  0  0  0  0  0  0  0  0  0  0  0
   -7.8032    5.3887    2.4795 C   0  0  0  0  0  0  0  0  0  0  0  0
   -7.0246    3.3144   -0.5480 C   0  0  0  0  0  0  0  0  0  0  0  0
   -7.9088    3.9687   -1.4211 O   0  0  0  0  0  0  0  0  0  0  0  0
   -8.0858    3.6340   -2.7947 C   0  0  0  0  0  0  0  0  0  0  0  0
   -6.2180    2.2379   -0.9666 C   0  0  0  0  0  0  0  0  0  0  0  0
   -5.3555    1.5974   -0.0649 C   0  0  0  0  0  0  0  0  0  0  0  0
   -4.4446    0.4928   -0.5530 C   0  0  0  0  0  0  0  0  0  0  0  0
   12.0252   -3.5816   -2.3203 H   0  0  0  0  0  0  0  0  0  0  0  0
   12.5969   -2.2337   -3.3750 H   0  0  0  0  0  0  0  0  0  0  0  0
   12.2391   -1.9075   -1.6387 H   0  0  0  0  0  0  0  0  0  0  0  0
    8.1071   -1.6268   -3.5198 H   0  0  0  0  0  0  0  0  0  0  0  0
    6.1177   -1.9311   -2.1312 H   0  0  0  0  0  0  0  0  0  0  0  0
    8.5908   -3.4720    1.0565 H   0  0  0  0  0  0  0  0  0  0  0  0
   10.5725   -3.1715   -0.3392 H   0  0  0  0  0  0  0  0  0  0  0  0
    4.5077   -1.6957   -0.5062 H   0  0  0  0  0  0  0  0  0  0  0  0
    2.3623   -1.0823    0.1038 H   0  0  0  0  0  0  0  0  0  0  0  0
   -0.1095   -2.2979    0.9800 H   0  0  0  0  0  0  0  0  0  0  0  0
    0.3917   -1.0827    2.2206 H   0  0  0  0  0  0  0  0  0  0  0  0
   -0.0510   -0.5495   -0.7951 H   0  0  0  0  0  0  0  0  0  0  0  0
    0.5902    0.6456    0.3815 H   0  0  0  0  0  0  0  0  0  0  0  0
   -1.5142    0.3719    1.7716 H   0  0  0  0  0  0  0  0  0  0  0  0
   -1.7256    1.1374    0.1674 H   0  0  0  0  0  0  0  0  0  0  0  0
   -2.3909   -1.7921    0.9119 H   0  0  0  0  0  0  0  0  0  0  0  0
   -2.4156   -1.1773   -0.7575 H   0  0  0  0  0  0  0  0  0  0  0  0
   -5.3037   -0.5458    2.1166 H   0  0  0  0  0  0  0  0  0  0  0  0
   -3.5977   -0.6096    2.6264 H   0  0  0  0  0  0  0  0  0  0  0  0
   -3.3293    1.8361    2.0900 H   0  0  0  0  0  0  0  0  0  0  0  0
   -4.6628    1.5365    3.2600 H   0  0  0  0  0  0  0  0  0  0  0  0
   -5.9926    3.4702    2.7022 H   0  0  0  0  0  0  0  0  0  0  0  0
   -6.8033    5.7903    2.7537 H   0  0  0  0  0  0  0  0  0  0  0  0
   -8.5370    6.2195    2.5021 H   0  0  0  0  0  0  0  0  0  0  0  0
   -8.1258    4.6159    3.2097 H   0  0  0  0  0  0  0  0  0  0  0  0
   -8.4315    2.5819   -2.8914 H   0  0  0  0  0  0  0  0  0  0  0  0
   -8.8542    4.3040   -3.2347 H   0  0  0  0  0  0  0  0  0  0  0  0
   -7.1314    3.7729   -3.3474 H   0  0  0  0  0  0  0  0  0  0  0  0
   -6.2491    1.8959   -1.9923 H   0  0  0  0  0  0  0  0  0  0  0  0
   -5.0003   -0.1309   -1.2826 H   0  0  0  0  0  0  0  0  0  0  0  0
   -3.6108    0.9653   -1.1095 H   0  0  0  0  0  0  0  0  0  0  0  0
  1  2  1  0
  2  3  1  0
  3  4  2  0
  4  5  1  0
  5  6  2  0
  6  7  1  0
  7  8  2  0
  6  9  1  0
  9 10  1  0
 10 11  2  0
 11 12  1  0
 12 13  2  0
 11 14  1  0
 14 15  2  0
 14 16  1  0
 16 17  1  0
 17 18  1  0
 18 19  1  0
 19 20  1  0
 20 21  1  0
 21 22  1  0
 22 23  1  0
 23 24  1  0
 24 25  2  0
 25 26  1  0
 26 27  1  0
 27 28  1  0
 26 29  2  0
 29 30  1  0
 30 31  1  0
 29 32  1  0
 32 33  2  0
 33 34  1  0
  8  3  1  0
 13  9  1  0
 34 21  1  0
 33 24  1  0
  1 35  1  0
  1 36  1  0
  1 37  1  0
  4 38  1  0
  5 39  1  0
  7 40  1  0
  8 41  1  0
 10 42  1  0
 16 43  1  0
 17 44  1  0
 17 45  1  0
 18 46  1  0
 18 47  1  0
 19 48  1  0
 19 49  1  0
 20 50  1  0
 20 51  1  0
 22 52  1  0
 22 53  1  0
 23 54  1  0
 23 55  1  0
 25 56  1  0
 28 57  1  0
 28 58  1  0
 28 59  1  0
 31 60  1  0
 31 61  1  0
 31 62  1  0
 32 63  1  0
 34 64  1  0
 34 65  1  0
M  END
$$$$
